launcher/output/tcopflowout/t0.m
function mpc = t0

%%-----  Power Flow Data  -----%%
%% system MVA base
mpc.baseMVA = 100;

%% OPF objective
mpc.obj = 0;

%% OPF convergence status
mpc.converged = 1;

%% bus data
%	bus_i	type	Pd	Qd	Gs	Bs	area	Vm	Va	baseKV	zone	Vmax	Vmin	mult_Pmis	mult_Qmis	Pslack	Qslack
mpc.bus = [
	1	1	0	0	0	0	1	0.973124062	-0.897165958	115	2	1.1	0.9	1.4008754e-08	-1.36505507e-08	0	0;
	2	1	4.60044838	1.30729927	0	0	1	0.973047373	-0.905928327	115	2	1.1	0.9	1.79836049e-08	-1.21237958e-08	0	0;
	3	1	0	0	0	0	1	1.0115976	-4.13128509	115	4	1.1	0.9	-8.1552588e-08	-5.30691741e-07	0	0;
	4	1	1.07787829	0.304342105	0	0	1	1.01158156	-4.13318084	115	4	1.1	0.9	-8.07083942e-08	-5.30607251e-07	0	0;
	5	1	0	0	0	0	1	0.993265396	-2.4279897	115	6	1.1	0.9	-4.00135505e-08	-3.42336279e-07	0	0;
	6	1	4.73758109	1.34678406	0	0	1	0.99318703	-2.43662888	115	6	1.1	0.9	-3.60956977e-08	-3.41130869e-07	0	0;
	7	1	0	0	0	0	1	0.968948711	-1.39268938	115	2	1.1	0.9	2.00731125e-08	2.85181628e-10	0	0;
	8	1	14.778707	4.21448384	0	0	1	0.968713138	-1.41982689	115	2	1.1	0.9	3.29568142e-08	4.41719376e-09	0	0;
	9	1	0	0	0	0	1	0.970583329	-1.10351464	115	2	1.1	0.9	1.65857706e-08	-5.77849729e-09	0	0;
	10	1	26.5693014	7.5698853	0	0	1	0.970113003	-1.16495711	115	2	1.1	0.9	4.09634582e-08	1.72379836e-09	0	0;
	11	1	0	0	0	0	1	1.02464422	-3.17406169	115	4	1.1	0.9	-7.58822479e-08	-5.62118366e-07	0	0;
	12	1	0.190213816	0.0570641447	0	0	1	1.02464126	-3.17441181	115	4	1.1	0.9	-7.57867124e-08	-5.62454253e-07	0	0;
	13	1	1.59779605	0.456513158	0	0	1	1.0246185	-3.17705185	115	4	1.1	0.9	-7.46628058e-08	-5.6214018e-07	0	0;
	14	1	0	0	0	0	1	1.01490019	-2.53653563	230	4	1.1	0.9	-5.83331815e-08	-4.36631927e-07	0	0;
	15	1	0	0	0	30	1	1.02222768	-3.02832257	115	4	1.1	0.9	-6.32883854e-08	-4.80223672e-07	0	0;
	16	1	28.3799013	8.09042763	0	0	1	1.02182038	-3.07568358	115	4	1.1	0.9	-3.79350379e-08	-4.73273036e-07	0	0;
	17	1	0	0	0	0	1	0.989939774	-3.12086029	115	4	1.1	0.9	-2.77204825e-08	-2.24330622e-07	0	0;
	18	1	0.450172697	0.126809211	0	0	1	0.989932457	-3.12185633	115	4	1.1	0.9	-2.73267912e-08	-2.24055585e-07	0	0;
	19	1	0.488215461	0.139490132	0	0	1	0.9899329	-3.12169725	115	4	1.1	0.9	-2.72929987e-08	-2.24081313e-07	0	0;
	20	1	0.716472039	0.202894737	0	0	1	0.989928421	-3.12218509	115	4	1.1	0.9	-2.7099694e-08	-2.24017591e-07	0	0;
	21	1	2.9229523	0.830600329	0	0	1	0.9898884	-3.12729276	115	4	1.1	0.9	-2.52769289e-08	-2.23472125e-07	0	0;
	22	1	0	0	0	0	1	1.02623727	-3.28013541	115	4	1.1	0.9	-8.61953059e-08	-6.27206888e-07	0	0;
	23	1	0.894004934	0.253618421	0	0	1	1.02622394	-3.28161752	115	4	1.1	0.9	-8.55470032e-08	-6.27375964e-07	0	0;
	24	1	1.52171053	0.431151316	0	0	1	1.0262142	-3.28251338	115	4	1.1	0.9	-8.50470417e-08	-6.27214122e-07	0	0;
	25	1	0	0	0	0	1	1.00164867	-2.73070687	115	6	1.1	0.9	-4.97785557e-08	-3.99180867e-07	0	0;
	26	1	0.804494903	0.232409639	0	0	1	1.00163664	-2.73203682	115	6	1.1	0.9	-4.91236204e-08	-3.99011627e-07	0	0;
	27	1	0	0	0	0	1	1.02704846	-3.30266314	115	4	1.1	0.9	-8.55923017e-08	-6.20394778e-07	0	0;
	28	1	1.4773273	0.424810855	0	0	1	1.02702362	-3.30570867	115	4	1.1	0.9	-8.44853299e-08	-6.20531212e-07	0	0;
	29	1	0	0	0	0	1	0.971603853	-0.717698396	115	2	1.1	0.9	1.3858184e-08	-1.79778222e-08	0	0;
	30	1	36.7849114	10.4832951	0	0	1	0.971002272	-0.783226448	115	2	1.1	0.9	5.03296008e-08	-7.15763321e-09	0	0;
	31	1	0	0	0	0	1	0.976524403	-3.13843766	115	7	1.1	0.9	-1.37616033e-08	-1.41052651e-07	0	0;
	32	1	0.36118541	0.106231003	0	0	1	0.976517711	-3.13923797	115	7	1.1	0.9	-1.33891996e-08	-1.40546902e-07	0	0;
	33	1	4.56085106	1.3031003	0	0	1	0.976451164	-3.14799702	115	7	1.1	0.9	-9.89467915e-09	-1.39571501e-07	0	0;
	34	1	0	0	0	0	1	1.0163618	-3.78534713	115	4	1.1	0.9	-8.57827021e-08	-5.83393653e-07	0	0;
	35	1	13.1627961	3.75355263	0	0	1	1.0161515	-3.81097869	115	4	1.1	0.9	-7.5053173e-08	-5.80573342e-07	0	0;
	36	1	0	0	0	0	1	0.98456203	-3.16248873	115	7	1.1	0.9	-1.62742935e-08	-1.58574707e-07	0	0;
	37	1	2.52829787	0.722370821	0	0	1	0.984523433	-3.16722657	115	7	1.1	0.9	-1.41285275e-08	-1.57745989e-07	0	0;
	38	1	21.1116413	6.01975684	0	0	1	0.984203308	-3.20393154	115	7	1.1	0.9	2.2607026e-09	-1.53051809e-07	0	0;
	39	1	4.69828125	1.33783717	0	0	1	1.00063906	-4.34936201	115	4	1.1	0.9	-6.34894154e-08	-3.96097057e-07	0	0;
	40	1	1.29345395	0.367746711	0	0	1	1.00062112	-4.35155246	115	4	1.1	0.9	-6.24310416e-08	-3.95803881e-07	0	0;
	41	1	23.5773084	6.72143925	0	0	1	1.02108867	-4.62124383	115	5	1.1	0.9	-7.48809246e-08	-4.43523359e-07	0	0;
	42	1	6.73356908	1.92115954	0	0	1	1.00401632	-4.17738371	115	4	1.1	0.9	-6.54017383e-08	-4.03057184e-07	0	0;
	43	1	1.30107404	0.367288843	0	0	1	0.972262946	-2.38355395	115	2	1.1	0.9	-3.66683437e-09	-8.87291807e-08	0	0;
	44	1	2.63129112	0.748174342	0	0	1	0.998261624	-3.60901786	115	4	1.1	0.9	-4.86263252e-08	-3.30213141e-07	0	0;
	45	1	0	0	0	0	1	0.990727635	-0.846847981	230	7	1.1	0.9	-2.25288688e-08	-2.47183323e-07	0	0;
	46	1	4.4900304	1.2818541	0	0	1	0.992147181	-1.38241296	115	7	1.1	0.9	-2.29079537e-08	-2.5734836e-07	0	0;
	47	1	0.976430921	0.278980263	0	0	1	1.02238096	-3.12115164	115	4	1.1	0.9	-8.04769686e-08	-6.0842269e-07	0	0;
	48	1	1.08457831	0.309879518	0	0	1	0.993157315	-2.63943964	115	6	1.1	0.9	-3.86361763e-08	-3.22337039e-07	0	0;
	49	2	0	0	0	0	1	0.996956932	-2.23091317	13.8	6	1.1	0.9	-4.734618e-08	-3.19768736e-07	0	0;
	50	2	0	0	0	0	1	0.996064774	-2.32921897	13.8	6	1.1	0.9	-4.86528522e-08	-3.20501465e-07	0	0;
	51	2	0	0	0	0	1	0.997463673	-2.16763246	13.8	6	1.1	0.9	-5.24060909e-08	-3.22394417e-07	0	0;
	52	2	0	0	0	0	1	0.995904368	-2.34833807	13.8	6	1.1	0.9	-5.43766183e-08	-3.23347308e-07	0	0;
	53	2	0	0	0	0	1	0.999574469	-1.74695802	13.8	6	1.1	0.9	-4.68877553e-08	-3.24467618e-07	0	0;
	54	1	1.6865625	0.481875	0	0	1	1.02080323	-3.29677751	115	4	1.1	0.9	-8.19781784e-08	-6.01898684e-07	0	0;
	55	1	0	0	0	0	1	0.987833398	-0.869984667	230	7	1.1	0.9	-1.90368788e-08	-2.21595906e-07	0	0;
	56	1	0.92775076	0.262036474	0	0	1	0.987687805	-1.09133581	115	7	1.1	0.9	-1.87533105e-08	-2.11411459e-07	0	0;
	57	1	1.78800987	0.507236842	0	0	1	1.0079164	-4.32528335	115	4	1.1	0.9	-7.71895811e-08	-4.85715662e-07	0	0;
	58	1	2.99571429	0.856930091	0	0	1	0.992442129	-3.30728252	115	7	1.1	0.9	-2.26235295e-08	-1.9110467e-07	0	0;
	59	1	2.94453597	0.840406674	0	0	1	0.978778056	-2.48644038	115	2	1.1	0.9	2.03970462e-09	-7.5632652e-08	0	0;
	60	1	2.36558916	0.672325339	0	0	1	0.982749192	-0.574658678	115	2	1.1	0.9	-3.33846763e-10	-1.04961491e-07	0	0;
	61	1	14.5536474	4.15009119	0	0	1	0.98849279	-1.44512476	115	7	1.1	0.9	-2.07525519e-08	-2.32299885e-07	0	0;
	62	1	13.574926	3.86768092	0	0	1	1.00472418	-4.65592602	115	4	1.1	0.9	-7.57129706e-08	-4.48005867e-07	0	0;
	63	1	5.0596875	1.43928454	0	0	1	1.02501713	-3.63483918	115	4	1.1	0.9	-8.33148727e-08	-5.72077322e-07	0	0;
	64	1	0	0	0	0	1	0.994118289	-2.01325798	115	6	1.1	0.9	-4.04843911e-08	-3.70324314e-07	0	0;
	65	2	0	0	0	0	1	0.976717703	0.0370340111	13.8	6	1.1	0.9	-2.18227308e-08	-3.69548645e-07	0	0;
	66	1	0	0	0	0	1	1.02385324	-2.91202568	115	4	1.1	0.9	-7.77407168e-08	-6.10287602e-07	0	0;
	67	2	0	0	0	0	1	1.02489812	-2.80669894	13.8	4	1.1	0.9	-9.08298215e-08	-6.30220126e-07	0	0;
	68	2	0	0	0	0	1	1.02226428	-1.69349227	13.8	4	1.1	0.9	-6.53178971e-08	-6.37506645e-07	0	0;
	69	2	0	0	0	0	1	1.02355134	-2.47516812	13.8	4	1.1	0.9	-8.32365438e-08	-6.19662491e-07	0	0;
	70	2	0	0	0	0	1	1.02288327	-1.99487698	13.8	4	1.1	0.9	-7.29842079e-08	-6.30836634e-07	0	0;
	71	2	0	0	0	0	1	1.02358089	-2.53712435	13.8	4	1.1	0.9	-8.55874139e-08	-6.18082434e-07	0	0;
	72	2	0	0	0	0	1	1.02363226	-2.5689656	13.8	4	1.1	0.9	-8.62748777e-08	-6.17328307e-07	0	0;
	73	2	0	0	0	0	1	1.02334441	-2.23838041	13.8	4	1.1	0.9	-8.09227238e-08	-6.25065222e-07	0	0;
	74	1	11.1794995	3.1881835	0	0	1	0.990281698	-3.10984856	115	6	1.1	0.9	-3.8936947e-08	-3.02498902e-07	0	0;
	75	1	2.24108446	0.641199166	0	0	1	0.978816325	0.0657390833	115	2	1.1	0.9	1.35034494e-08	1.7485368e-08	0	0;
	76	2	0	0	0	0	1	0.985763282	0.605915555	13.8	2	1.1	0.9	-2.02095996e-09	5.41816016e-08	0	0;
	77	2	0	0	0	0	1	0.989906356	0.976329122	13.8	2	1.1	0.9	-9.63757127e-08	3.85230158e-08	0	0;
	78	1	0	0	0	0	1	0.978816325	0.0657390833	13.8	2	1.1	0.9	1.43207278e-08	3.48378038e-08	0	0;
	79	1	0	0	0	0	1	0.978816325	0.0657390833	13.8	2	1.1	0.9	1.45250474e-08	4.40559087e-08	0	0;
	80	1	0.910130841	0.258280374	0	0	1	1.01915869	-4.23609191	115	5	1.1	0.9	-6.76043856e-08	-4.08879029e-07	0	0;
	81	1	0	0	0	0	1	0.996400863	-1.9131136	230	6	1.1	0.9	-3.22018427e-08	-2.67921624e-07	0	0;
	82	1	4.52900834	1.29315107	0	0	1	0.994426326	-2.34021207	115	6	1.1	0.9	-3.18988162e-08	-2.50186212e-07	0	0;
	83	1	2.223769	0.630303951	0	0	1	0.983755831	-2.12715909	115	7	1.1	0.9	-1.18074192e-08	-1.4192366e-07	0	0;
	84	1	2.33446298	0.666100104	0	0	1	0.973589878	-2.52609762	115	2	1.1	0.9	-1.00781425e-08	-1.17909288e-07	0	0;
	85	1	3.06244243	0.874983553	0	0	1	0.996980772	-4.03131071	115	4	1.1	0.9	-5.1579952e-08	-3.38511908e-07	0	0;
	86	1	5.13581856	1.46293014	0	0	1	0.969646918	-1.25586936	115	2	1.1	0.9	1.81043913e-08	-2.28273527e-09	0	0;
	87	1	0	0	0	0	1	1.01143715	-3.1316549	230	3	1.1	0.9	-6.84422566e-08	-4.70708677e-07	0	0;
	88	1	30.4050923	8.66428044	0	0	1	1.01197548	-3.9009141	115	3	1.1	0.9	-7.73744051e-08	-4.713905e-07	0	0;
	89	1	44.5107903	12.6839818	0	0	1	0.999782565	-3.63001439	115	7	1.1	0.9	-4.07350207e-08	-2.87461794e-07	0	0;
	90	2	0	0	0	0	1	1.01205273	-2.40855936	13.8	7	1.1	0.9	-1.39010432e-07	-4.55199561e-07	0	0;
	91	2	0	0	0	0	1	1.00428791	-3.21077222	13.8	7	1.1	0.9	-4.91237859e-08	-3.00935813e-07	0	0;
	92	1	0	0	0	0	1	0.999782565	-3.63001439	13.8	7	1.1	0.9	-4.07170821e-08	-2.87129408e-07	0	0;
	93	1	1.94018092	0.551620066	0	0	1	1.02690057	-3.39275508	115	4	1.1	0.9	-8.15465203e-08	-5.81806079e-07	0	0;
	94	2	0	0	0	0	1	1.02793712	-2.57150576	13.8	4	1.1	0.9	-7.7503331e-08	-6.1667634e-07	0	0;
	95	1	2.12462006	0.601975684	0	30	1	1.00540297	-3.59683481	115	7	1.1	0.9	-3.31009174e-08	-2.45660192e-07	0	0;
	96	1	2.09629179	0.594893617	0	0	1	1.00261443	-2.64353551	115	7	1.1	0.9	-4.24656223e-08	-3.27275051e-07	0	0;
	97	1	4.56309698	1.30107404	0	0	1	0.986447762	-1.74630205	115	2	1.1	0.9	-1.25227224e-08	-1.6978075e-07	0	0;
	98	1	0	0	0	0	1	0.975940049	0.346229722	230	2	1.1	0.9	7.43611864e-09	-2.20819742e-08	0	0;
	99	1	7.57611053	2.16015641	0	0	1	0.973734042	-0.305428097	115	2	1.1	0.9	1.18647324e-08	-1.23330975e-08	0	0;
	100	1	22.9931028	6.55540187	0	80	1	1.02948101	-4.52001003	115	5	1.1	0.9	-7.41441476e-08	-4.40112337e-07	0	0;
	101	1	0.3237122	0.0933785193	0	0	1	0.970358324	-1.2137877	115	2	1.1	0.9	1.70295884e-08	-6.26976394e-09	0	0;
	102	1	0	0	0	0	1	0.986750374	-0.638829291	230	7	1.1	0.9	-1.86401663e-08	-2.18457157e-07	0	0;
	103	1	0	0	0	0	1	0.987609075	-1.12815043	115	7	1.1	0.9	-1.84090676e-08	-2.10552651e-07	0	0;
	104	2	0	0	0	0	1	0.980882501	0.821538895	13.8	7	1.1	0.9	-2.22667838e-08	-2.10124083e-07	0	0;
	105	2	0	0	0	0	1	0.974408139	1.61882932	13.8	7	1.1	0.9	-1.00176711e-08	-2.14652281e-07	0	0;
	106	1	1.45890578	0.417841945	0	0	1	0.985831799	-1.30548501	115	7	1.1	0.9	-1.36365929e-08	-1.78408608e-07	0	0;
	107	1	37.2233435	10.6089362	0	0	1	0.971319759	-3.17352381	115	7	1.1	0.9	-1.5623345e-08	-1.52918476e-07	0	0;
	108	1	5.86417101	1.66836288	0	0	1	0.977626767	-0.314998694	115	2	1.1	0.9	1.56165499e-08	1.67638889e-08	0	0;
	109	1	3.27167763	0.932047697	0	0	1	0.986467574	-2.40005023	115	4	1.1	0.9	-1.73219096e-08	-1.73992737e-07	0	0;
	110	1	6.7606048	1.9235975	0	0	1	0.970406697	-1.19322916	115	2	1.1	0.9	1.70968216e-08	-5.34171264e-09	0	0;
	111	1	5.42388785	1.54353271	0	0	1	1.01769132	-4.69180176	115	5	1.1	0.9	-7.50607895e-08	-4.40865923e-07	0	0;
	112	1	0	0	0	0	1	0.98277982	-0.827347959	230	7	1.1	0.9	-1.51764584e-08	-1.92130408e-07	0	0;
	113	1	0	0	0	0	1	0.974874864	-2.58753898	115	7	1.1	0.9	-1.66981725e-08	-1.49221014e-07	0	0;
	114	2	0	0	0	0	1	0.983450047	-0.649987587	13.8	7	1.1	0.9	-2.4400605e-08	-1.61513497e-07	0	0;
	115	2	0	0	0	0	1	0.97481153	1.15533655	13.8	7	1.1	0.9	-1.39880212e-08	-1.85326333e-07	0	0;
	116	1	0	0	0	0	1	0.974950135	0.273931347	230	2	1.1	0.9	5.07521805e-09	-3.9112734e-08	0	0;
	117	1	21.2155996	6.04470282	0	0	1	0.972715784	-0.987443705	115	2	1.1	0.9	9.63367085e-09	-3.09292847e-08	0	0;
	118	1	2.45274244	0.697226277	0	0	1	0.974688143	-0.588245224	115	2	1.1	0.9	1.26124455e-08	-1.55469313e-08	0	0;
	119	1	10.9252868	3.11261731	0	0	1	0.9751307	-2.18067393	115	2	1.1	0.9	7.66889478e-09	-4.70830169e-08	0	0;
	120	1	1.14128289	0.323363487	0	0	1	0.994216009	-3.67397314	115	4	1.1	0.9	-4.13713115e-08	-2.90439069e-07	0	0;
	121	1	0	0	0	0	1	1.00084247	-1.2306761	230	7	1.1	0.9	-3.07177389e-08	-3.28877075e-07	0	0;
	122	1	10.9347112	3.11610942	0	0	1	0.99804861	-1.85733936	115	7	1.1	0.9	-3.33162162e-08	-3.04251439e-07	0	0;
	123	1	0	0	0	0	1	0.978962426	1.05199881	230	2	1.1	0.9	4.6835754e-09	-3.57370872e-08	0	0;
	124	1	0	0	0	0	1	0.97547245	-0.18102376	115	2	1.1	0.9	9.57370576e-09	-2.03108367e-08	0	0;
	125	2	0	0	0	0	1	0.991866833	3.4301169	13.8	2	1.1	0.9	-4.28881927e-09	-3.46159472e-08	0	0;
	126	2	0	0	0	0	1	0.986783347	2.57067708	13.8	2	1.1	0.9	-5.4351206e-09	-3.4779425e-08	0	0;
	127	2	0	0	0	0	1	0.982795473	1.78193107	13.8	2	1.1	0.9	-6.39445887e-09	-3.6370164e-08	0	0;
	128	1	0	0	0	0	1	0.983359637	-0.84592061	230	7	1.1	0.9	-1.58594755e-08	-1.91882251e-07	0	0;
	129	1	54.7018845	15.5876292	0	0	1	0.973593123	-2.78733822	115	7	1.1	0.9	-1.79092176e-08	-1.68221433e-07	0	0;
	130	1	3.11610942	0.885258359	0	0	1	0.984164099	-1.41990065	115	7	1.1	0.9	-9.46912517e-09	-1.52664789e-07	0	0;
	131	1	18.8313347	5.36615224	0	0	1	0.970738097	-1.10099277	115	2	1.1	0.9	1.66266786e-08	-6.7281844e-09	0	0;
	132	1	16.7832325	4.78098019	0	0	1	0.969966374	-2.10889024	115	2	1.1	0.9	4.41732895e-09	-5.55168604e-08	0	0;
	133	1	0	0	0	0	1	0.978509397	1.26431036	230	2	1.1	0.9	1.98054447e-09	-4.85560013e-08	0	0;
	134	1	0	0	0	0	1	0.97983314	0.446856972	115	2	1.1	0.9	5.28366684e-09	-5.72577344e-08	0	0;
	135	2	0	0	0	0	1	0.972728533	3.97082702	13.8	2	1.1	0.9	2.86596025e-09	-4.44915738e-08	0	0;
	136	2	0	0	0	0	1	0.973884869	3.48145793	13.8	2	1.1	0.9	2.10029193e-09	-4.52984994e-08	0	0;
	137	1	0.735493421	0.209235197	0	0	1	1.01388367	-3.98121605	115	4	1.1	0.9	-8.40119481e-08	-5.56363709e-07	0	0;
	138	1	1.24547729	0.35755329	0	0	1	0.991135384	-2.59222049	115	6	1.1	0.9	-2.26805064e-08	-2.06746568e-07	0	0;
	139	1	4.25806048	1.21392075	0	0	1	0.981979432	-2.63642105	115	2	1.1	0.9	-3.96287513e-09	-1.0599014e-07	0	0;
	140	1	5.11091762	1.4567049	0	0	1	0.974740613	-0.302616939	115	2	1.1	0.9	1.04617236e-08	-3.15753178e-08	0	0;
	141	1	0.883983316	0.255234619	0	0	1	0.970405084	-1.18699202	115	2	1.1	0.9	1.76054363e-08	-4.48478079e-09	0	0;
	142	1	23.1952242	6.61119917	0	0	1	0.969302784	-1.18502314	115	2	1.1	0.9	1.74213179e-08	-2.49611299e-09	0	0;
	143	1	16.4684486	4.69209346	0	0	1	1.00633462	-3.85881421	115	5	1.1	0.9	-5.85926731e-08	-3.65495178e-07	0	0;
	144	1	5.63383733	1.60611053	0	0	1	0.978174249	-1.49882234	115	2	1.1	0.9	2.22144025e-09	-7.85017754e-08	0	0;
	145	1	10.8087823	3.08118081	0	0	1	1.00933644	-4.34838072	115	3	1.1	0.9	-8.32714668e-08	-4.77345258e-07	0	0;
	146	1	0	0	0	0	1	0.983286411	-1.82870524	115	7	1.1	0.9	-1.25450566e-08	-1.41256774e-07	0	0;
	147	2	0	0	0	0	1	0.978800753	0.358362202	13.8	7	1.1	0.9	-2.12420069e-08	-1.30417909e-07	0	0;
	148	1	19.9332013	5.68363921	0	0	1	0.967194988	-1.65332041	115	2	1.1	0.9	2.14319997e-08	3.3568169e-09	0	0;
	149	1	0	0	0	0	1	1.01170424	-2.8683578	230	3	1.1	0.9	-6.63680193e-08	-4.69701153e-07	0	0;
	150	1	0	0	0	0	1	1.01353281	-3.59124899	115	3	1.1	0.9	-7.4930462e-08	-4.69901549e-07	0	0;
	151	2	0	0	0	0	1	1.01589012	-2.31138692	13.8	3	1.1	0.9	-9.25248897e-08	-5.21550598e-07	0	0;
	152	2	0	0	0	0	1	1.00411472	-1.00885931	13.8	3	1.1	0.9	-5.65607535e-08	-4.7515307e-07	0	0;
	153	2	0	0	0	0	1	1.00206904	-0.433466112	13.8	3	1.1	0.9	-4.70963446e-08	-4.77178054e-07	0	0;
	154	2	0	0	0	0	1	1.00648105	-1.5186118	13.8	3	1.1	0.9	-6.50264841e-08	-4.73133462e-07	0	0;
	155	2	0	0	0	0	1	1.00666641	-1.55934682	13.8	3	1.1	0.9	-6.57019339e-08	-4.72944765e-07	0	0;
	156	1	0	0	0	0	1	0.978746272	1.07210948	230	2	1.1	0.9	4.35185542e-09	-3.74546468e-08	0	0;
	157	1	9.1884463	2.62082377	0	0	1	0.978542816	0.566151342	115	2	1.1	0.9	6.1764609e-09	-1.55217264e-08	0	0;
	158	1	5.68739309	1.62315789	0	0	1	1.02487695	-3.1340237	115	4	1.1	0.9	-8.01100926e-08	-6.04254763e-07	0	0;
	159	1	0.881324013	0.253618421	0	0	1	1.00457874	-4.44417035	115	4	1.1	0.9	-7.20410964e-08	-4.43546612e-07	0	0;
	160	1	0	0	0	0	1	1.00745383	-4.45034775	115	4	1.1	0.9	-7.44887596e-08	-4.49611327e-07	0	0;
	161	1	0	0	0	0	1	1.00745383	-4.45034775	13.8	4	1.1	0.9	-7.4532417e-08	-4.52133032e-07	0	0;
	162	1	0.90265902	0.255234619	0	0	1	0.976735	-1.35932494	115	2	1.1	0.9	4.78735623e-09	-5.98107028e-08	0	0;
	163	1	28.1648598	8.02514019	0	0	1	1.018279	-4.5864242	115	5	1.1	0.9	-7.35912092e-08	-4.3940434e-07	0	0;
	164	1	0	0	0	0	1	1.018279	-4.5864242	13.8	5	1.1	0.9	-7.42346351e-08	-4.48264283e-07	0	0;
	165	1	0	0	0	0	1	1.018279	-4.5864242	13.8	5	1.1	0.9	-7.41713665e-08	-4.6305414e-07	0	0;
	166	1	0	0	0	0	1	1.018279	-4.5864242	13.8	5	1.1	0.9	-7.48744545e-08	-4.69358882e-07	0	0;
	167	2	0	0	0	0	1	1.02052832	-4.28682339	13.8	5	1.1	0.9	-8.32454186e-08	-4.59985024e-07	0	0;
	168	1	0	0	0	0	1	1.018279	-4.5864242	13.8	5	1.1	0.9	-7.50024027e-08	-4.7789723e-07	0	0;
	169	1	0	0	0	0	1	1.018279	-4.5864242	13.8	5	1.1	0.9	-7.48744545e-08	-4.7048329e-07	0	0;
	170	2	0	0	0	0	1	1.02233069	-4.01350697	13.8	5	1.1	0.9	-8.47010989e-08	-4.79149592e-07	0	0;
	171	1	4.73162187	1.34678406	0	0	1	0.990811311	-3.0255385	115	6	1.1	0.9	-3.38546716e-08	-2.61548837e-07	0	0;
	172	1	3.3084486	0.940878505	0	0	1	1.01505569	-4.04589914	115	5	1.1	0.9	-7.11306767e-08	-4.49905352e-07	0	0;
	173	1	5.35624299	1.52508411	0	0	1	1.01803212	-4.57246716	115	5	1.1	0.9	-7.42200644e-08	-4.31457794e-07	0	0;
	174	1	1.70342056	0.485813084	0	0	1	1.01965892	-4.04997161	115	5	1.1	0.9	-6.62310381e-08	-4.09766163e-07	0	0;
	175	1	4.49530841	1.2791028	0	0	1	1.01760024	-4.7003569	115	5	1.1	0.9	-7.56987105e-08	-4.38531539e-07	0	0;
	176	1	11.7146494	3.34	0	0	1	1.01041924	-4.14353622	115	3	1.1	0.9	-7.93117438e-08	-4.74093816e-07	0	0;
	177	1	7.9956535	2.28042553	0	0	1	0.982335389	-2.87817355	115	7	1.1	0.9	-1.55373594e-08	-1.52663074e-07	0	0;
	178	1	0	0	0	0	1	1.00653377	-2.66344874	230	5	1.1	0.9	-5.07652609e-08	-3.41139452e-07	0	0;
	179	1	14.5190467	4.13863551	0	0	1	1.01716385	-3.92367683	115	5	1.1	0.9	-6.20282028e-08	-4.04680935e-07	0	0;
	180	1	4.75973832	1.35904673	0	0	1	1.01735337	-4.17176105	115	5	1.1	0.9	-7.29484397e-08	-4.54902682e-07	0	0;
	181	1	30.4215296	8.66740954	0	0	1	1.00877065	-4.33580096	115	4	1.1	0.9	-7.40991271e-08	-4.48850274e-07	0	0;
	182	2	0	0	0	0	1	1.01125912	-3.46207748	13.8	4	1.1	0.9	-7.28574512e-08	-4.62914541e-07	0	0;
	183	2	0	0	0	0	1	1.00923775	-3.82300936	13.8	4	1.1	0.9	-8.23334956e-08	-4.53429765e-07	0	0;
	184	1	6.57385047	1.87560748	0	0	1	1.02701969	-4.31802543	115	5	1.1	0.9	-8.21064208e-08	-5.04018334e-07	0	0;
	185	1	6.64918819	1.89184502	0	0	1	1.01060872	-4.15908019	115	3	1.1	0.9	-8.20163607e-08	-4.7659678e-07	0	0;
	186	1	1.30729927	0.373514077	0	0	1	0.983825246	-1.64549081	115	2	1.1	0.9	-9.78913573e-09	-1.32394767e-07	0	0;
	187	1	0	0	0	0	1	0.99781308	-0.776981981	230	7	1.1	0.9	-2.89802895e-08	-3.10730363e-07	0	0;
	188	1	0	0	0	0	1	1.00357061	-2.45945681	115	7	1.1	0.9	-4.11772572e-08	-3.20710854e-07	0	0;
	189	3	0	0	0	0	1	0.995088165	-1.71505173e-23	13.8	7	1.1	0.9	-2.33698467e-08	-3.11983139e-07	0	0;
	190	1	10.0055329	2.84850788	0	0	1	0.989479445	-3.25189863	115	6	1.1	0.9	-3.73514528e-08	-2.82014686e-07	0	0;
	191	1	4.44611215	1.26680374	0	0	1	1.02349531	-3.93712033	115	5	1.1	0.9	-8.26873232e-08	-5.36012979e-07	0	0;
	192	1	37.3508207	10.6443465	0	0	1	0.971732395	-3.22413601	115	7	1.1	0.9	-1.45593115e-08	-1.47677364e-07	0	0;
	193	1	13.6892909	3.90322211	0	0	1	0.971103166	-1.06907151	115	2	1.1	0.9	1.59188487e-08	-7.12977457e-09	0	0;
	194	1	23.1519926	6.5998893	0	50	1	1.0152072	-4.05180415	115	3	1.1	0.9	-7.61358274e-08	-4.6763726e-07	0	0;
	195	1	0	0	0	0	1	0.993111611	-2.53137211	115	6	1.1	0.9	-2.89383639e-08	-2.3953893e-07	0	0;
	196	1	0	0	0	0	1	0.993111611	-2.53137211	13.8	6	1.1	0.9	-2.88545143e-08	-2.37772556e-07	0	0;
	197	1	0	0	0	0	1	0.993111611	-2.53137211	13.8	6	1.1	0.9	-2.88545143e-08	-2.33905291e-07	0	0;
	198	1	3.34295099	0.952460897	0	0	1	0.975772891	-0.606206147	115	2	1.1	0.9	1.43962489e-08	-1.25938151e-09	0	0;
	199	1	2.53862836	0.721065802	0	0	1	1.01030541	-3.55266007	115	6	1.1	0.9	-6.22875358e-08	-4.31222365e-07	0	0;
	200	1	5.92199013	1.6865625	0	0	1	0.991211648	-2.76422313	115	4	1.1	0.9	-2.86116331e-08	-2.42629733e-07	0	0;
];

%% generator data
%	bus	Pg	Qg	Qmax	Qmin	Vg	mBase	status	Pmax	Pmin	Pc1	Pc2	Qc1min	Qc1max	Qc2min	Qc2max	ramp_agc	ramp_10	ramp_30	ramp_q	apf	pgs
mpc.gen = [
	49	1.35999911	0.64734225	2.11	-0.55	0.996956932	5.44	1	4.53	1.36	0	0	0	0	0	0	3	30	90	0	0.00151126442	1.36;
	50	1.35999911	0.647044316	2.11	-0.55	0.996064774	5.44	1	4.53	1.36	0	0	0	0	0	0	3	30	90	0	0.00151126442	1.36;
	51	1.35999911	0.646274689	2.11	-0.55	0.997463673	5.44	1	4.53	1.36	0	0	0	0	0	0	3	30	90	0	0.00151126442	1.36;
	52	1.35999911	0.645887443	2.11	-0.55	0.995904368	5.44	1	4.53	1.36	0	0	0	0	0	0	3	30	90	0	0.00151126442	1.36;
	53	2.71999911	1.03338047	4.23	-1.11	0.999574469	10.88	1	9.07	2.72	0	0	0	0	0	0	3	30	90	0	0.00302586497	2.72;
	65	33.9927019	-16.5491366	32.04	-21.66	0.976717703	180.48	1	86.5	0	0	0	0	0	0	0	45	450	1350	0	0.0288574774	86.5;
	67	1.40999911	0.536836451	2.19	-0.57	1.02489812	5.64	1	4.7	1.41	0	0	0	0	0	0	3	30	90	0	0.00156797854	1.41;
	68	8.37999911	-0.741526076	13.01	-3.41	1.02226428	33.5	1	27.92	8.38	0	0	0	0	0	0	3	30	90	0	0.00931445976	8.38;
	69	8.37999911	-0.682281802	13.01	-3.41	1.02355134	33.5	1	27.92	8.38	0	0	0	0	0	0	3	30	90	0	0.00931445976	8.38;
	70	8.37999911	-0.719671225	13.01	-3.41	1.02288327	33.5	1	27.92	8.38	0	0	0	0	0	0	3	30	90	0	0.00931445976	8.38;
	71	8.37999911	-0.676914643	13.01	-3.41	1.02358089	33.5	1	27.92	8.38	0	0	0	0	0	0	3	30	90	0	0.00931445976	8.38;
	72	8.37999911	-0.674345905	13.01	-3.41	1.02363226	33.5	1	27.92	8.38	0	0	0	0	0	0	3	30	90	0	0.00931445976	8.38;
	73	8.37999911	-0.700482791	13.01	-3.41	1.02334441	33.5	1	27.92	8.38	0	0	0	0	0	0	3	30	90	0	0.00931445976	8.38;
	76	1.19999909	0.819729576	2.04	-0.44	0.985763282	4.8	1	4	1.2	0	0	0	0	0	0	35	350	1050	0	0.00133444982	1.2;
	77	0.719999091	0.480064644	1.22	-0.27	0.989906356	2.88	1	2.4	0.72	0	0	0	0	0	0	35	350	1050	0	0.000800669894	0.72;
	78	0	0	9.16	-2	0.978816325	21.6	0	18	5.4	0	0	0	0	0	0	35	350	1050	0	0	11.7;
	79	0	0	9.16	-2	0.978816325	21.6	0	18	5.4	0	0	0	0	0	0	35	350	1050	0	0	11.7;
	90	0.959999091	0.529448579	1.63	-0.36	1.01205273	3.84	1	3.2	0.96	0	0	0	0	0	0	35	350	1050	0	0.00106755986	0.96;
	91	1.49999909	0.83077648	2.55	-0.55	1.00428791	6	1	5	1.5	0	0	0	0	0	0	35	350	1050	0	0.00166806228	1.5;
	92	0	0	3.21	-0.7	0.999782565	7.56	0	6.3	1.89	0	0	0	0	0	0	35	350	1050	0	0	4.095;
	94	5.39999911	0.212835619	8.39	-2.2	1.02793712	21.6	1	18	5.4	0	0	0	0	0	0	3	30	90	0	0.0060050242	5.4;
	104	27.9464966	-6.86981448	21.09	-14.26	0.980882501	118.8	1	67.6	0	0	0	0	0	0	0	45	450	1350	0	0.022552202	67.6;
	105	63.4181901	-20.01918	42.17	-28.51	0.974408139	237.6	1	154.8	0	0	0	0	0	0	0	45	450	1350	0	0.0516432082	154.8;
	114	0.697167578	0.0565570755	0.36	-0.24	0.983450047	2.04	1	1.4	0	0	0	0	0	0	0	45	450	1350	0	0.000467057438	1.4;
	115	52.5478775	-12.5323032	31.95	-21.6	0.97481153	180	1	133.5	0	0	0	0	0	0	0	45	450	1350	0	0.0445372628	133.5;
	125	39.0199991	11.3689781	60.6	-15.87	0.991866833	156.06	1	130.05	39.02	0	0	0	0	0	0	3	30	90	0	0.0433862999	39.02;
	126	39.0199991	11.3250246	60.6	-15.87	0.986783347	156.06	1	130.05	39.02	0	0	0	0	0	0	3	30	90	0	0.0433862999	39.02;
	127	39.0199991	10.9020742	60.6	-15.87	0.982795473	156.06	1	130.05	39.02	0	0	0	0	0	0	3	30	90	0	0.0433862999	39.02;
	135	133.919999	-15.3297859	208.02	-54.46	0.972728533	535.68	1	446.4	133.92	0	0	0	0	0	0	3	30	90	0	0.1489246	133.92;
	136	133.919999	-15.8898602	208.02	-54.46	0.973884869	535.68	1	446.4	133.92	0	0	0	0	0	0	3	30	90	0	0.1489246	133.92;
	147	35.965293	-4.50703509	21.41	-14.47	0.978800753	120.6	1	92.4	0	0	0	0	0	0	0	45	450	1350	0	0.0308257909	92.4;
	151	1.61999911	0.628867423	2.52	-0.66	1.01589012	6.48	1	5.4	1.62	0	0	0	0	0	0	3	30	90	0	0.00180150726	1.62;
	152	23.1699991	-5.40821121	35.99	-9.42	1.00411472	92.67	1	77.22	23.17	0	0	0	0	0	0	3	30	90	0	0.0257615538	23.17;
	153	23.1699991	-5.42345048	35.99	-9.42	1.00206904	92.67	1	77.22	23.17	0	0	0	0	0	0	3	30	90	0	0.0257615538	23.17;
	154	23.1699991	-5.39289741	35.99	-9.42	1.00648105	92.67	1	77.22	23.17	0	0	0	0	0	0	3	30	90	0	0.0257615538	23.17;
	155	23.1699991	-5.3914607	35.99	-9.42	1.00666641	92.67	1	77.22	23.17	0	0	0	0	0	0	3	30	90	0	0.0257615538	23.17;
	161	0	0	70.55	-15.38	1.00745383	166.32	0	138.6	41.58	0	0	0	0	0	0	35	350	1050	0	0	90.09;
	164	0	0	6.11	-1.33	1.018279	14.4	0	12	3.6	0	0	0	0	0	0	35	350	1050	0	0	7.8;
	165	0	0	13.23	-2.89	1.018279	31.2	0	26	7.8	0	0	0	0	0	0	35	350	1050	0	0	16.9;
	166	0	0	4.78	-1.04	1.018279	11.28	0	9.4	2.82	0	0	0	0	0	0	35	350	1050	0	0	6.11;
	167	2.81999909	1.02508494	4.78	-1.04	1.02052832	11.28	1	9.4	2.82	0	0	0	0	0	0	35	350	1050	0	0.00313595708	2.82;
	168	0	0	4.78	-1.04	1.018279	11.28	0	9.4	2.82	0	0	0	0	0	0	35	350	1050	0	0	6.11;
	169	0	0	4.78	-1.04	1.018279	11.28	0	9.4	2.82	0	0	0	0	0	0	35	350	1050	0	0	6.11;
	170	2.81999909	0.995630692	4.78	-1.04	1.02233069	11.28	1	9.4	2.82	0	0	0	0	0	0	35	350	1050	0	0.00313595708	2.82;
	182	5.24999911	0.691236641	8.16	-2.14	1.01125912	21	1	17.5	5.25	0	0	0	0	0	0	3	30	90	0	0.00583821798	5.25;
	183	7.97999911	0.125125727	12.4	-3.25	1.00923775	31.92	1	26.6	7.98	0	0	0	0	0	0	3	30	90	0	0.00887409132	7.98;
	189	170.749999	-40.0829717	209.45	-46.67	0.995088165	682.98	1	569.15	170.75	0	0	0	0	0	0	20	200	600	0	0.189875529	384.37;
	196	0	0	34.36	-7.49	0.993111611	81	0	67.5	20.25	0	0	0	0	0	0	35	350	1050	0	0	43.875;
	197	0	0	34.36	-7.49	0.993111611	81	0	67.5	20.25	0	0	0	0	0	0	35	350	1050	0	0	43.875;
];

%% branch data
%	fbus	tbus	r	x	b	rateA	rateB	rateC	ratio	angle	status	angmin	angmax	Pf	Qf	Pt	Qt
mpc.branch = [
	1	2	0.000673	0.003339	0	100	0	0	1	0	1	0	0	4.6006	1.3081	-4.6004	-1.3073;
	1	119	0.018542	0.119758	0.02285	221.1	0	0	1	0	1	0	0	17.1167	-5.1638	-17.0561	3.3871;
	1	124	0.005615	0.036268	0.00692	221.1	0	0	1	0	1	0	0	-32.8694	-1.3355	32.9335	1.0927;
	1	193	0.004258	0.027501	0.00525	221.1	0	0	1	0	1	0	0	11.1521	5.1912	-11.1452	-5.6426;
	3	4	0.000573	0.003303	0	100	0	0	1	0	1	0	0	1.0779	0.3044	-1.0779	-0.3043;
	3	57	0.008505	0.058098	0.00988	221.1	0	0	1	0	1	0	0	6.7376	4.9279	-6.7314	-5.8927;
	3	137	0.005889	0.038035	0.00726	221.1	0	0	1	0	1	0	0	-7.8155	-5.2323	7.8203	4.5191;
	5	6	0.000694	0.003337	0	100	0	0	1	0	1	0	0	4.7378	1.3476	-4.7376	-1.3468;
	5	48	0.006246	0.043513	0.00711	221.1	0	0	1	0	1	0	0	8.2345	-1.2706	-8.2302	0.5995;
	5	64	0.007877	0.054875	0.00897	221.1	0	0	1	0	1	0	0	-12.9723	-0.0770	12.9857	-0.7150;
	7	8	0.000634	0.003189	0	100	0	0	1	0	1	0	0	14.7803	4.2225	-14.7787	-4.2145;
	7	86	0.003756	0.024259	0.00463	221.1	0	0	1	0	1	0	0	-9.4519	-1.5316	9.4556	1.1202;
	7	101	0.003597	0.023232	0.00443	221.1	0	0	1	0	1	0	0	-13.2269	-4.0195	13.2342	3.6498;
	7	148	0.008667	0.05598	0.01068	221.1	0	0	1	0	1	0	0	7.8986	1.3286	-7.8925	-2.2903;
	9	10	0.000585	0.003967	0	100	0	0	1	0	1	0	0	26.5740	7.6021	-26.5693	-7.5699;
	9	124	0.008069	0.055123	0.00938	221.1	0	0	1	0	1	0	0	-28.2743	-4.6889	28.3443	4.2792;
	9	131	0.004139	0.026732	0.0051	221.1	0	0	1	0	1	0	0	-0.2365	-0.7655	0.2365	0.2851;
	9	141	0.004446	0.03097	0.00506	221.1	0	0	1	0	1	0	0	4.4204	-0.3111	-4.4195	-0.1591;
	9	193	0.003695	0.025244	0.00429	221.1	0	0	1	0	1	0	0	-2.4837	-1.8365	2.4841	1.4345;
	11	12	0.000534	0.003533	0	100	0	0	1	0	1	0	0	0.1902	0.0571	-0.1902	-0.0571;
	11	13	0.000619	0.003606	0	100	0	0	1	0	1	0	0	1.5978	0.4566	-1.5978	-0.4565;
	11	15	0.010408	0.06722	0.01282	221.1	0	0	1	0	1	0	0	-3.3129	3.5286	3.3158	-4.8530;
	11	93	0.018394	0.128141	0.02095	221.1	0	0	1	0	1	0	0	2.8180	-3.3025	-2.8158	1.1138;
	11	158	0.008519	0.058199	0.0099	221.1	0	0	1	0	1	0	0	-1.2931	-0.7397	1.2932	-0.2989;
	14	15	0.000637	0.027526	0	300	0	0	1	0	1	0	0	31.7112	-27.6119	-31.7003	28.0844;
	14	121	0.007013	0.050098	0.09134	402.36	0	0	1	0	1	0	0	-41.3364	30.0875	41.5351	-37.9465;
	14	149	0.009133	0.065244	0.11895	402.36	0	0	1	0	1	0	0	9.6252	-2.4756	-9.6158	-9.6709;
	15	16	0.000553	0.0032	0	100	0	0	1	0	1	0	0	28.3845	8.1171	-28.3799	-8.0904;
	17	18	0.000503	0.003926	0	100	0	0	1	0	1	0	0	0.4502	0.1268	-0.4502	-0.1268;
	17	19	0.000514	0.003079	0	100	0	0	1	0	1	0	0	0.4882	0.1395	-0.4882	-0.1395;
	17	20	0.000623	0.003339	0	100	0	0	1	0	1	0	0	0.7165	0.2029	-0.7165	-0.2029;
	17	21	0.00062	0.00394	0	100	0	0	1	0	1	0	0	2.9230	0.8310	-2.9230	-0.8306;
	17	109	0.009789	0.068198	0.01115	221.1	0	0	1	0	1	0	0	-16.9254	7.0365	16.9598	-7.8860;
	17	120	0.010316	0.070473	0.01199	221.1	0	0	1	0	1	0	0	12.3475	-8.3367	-12.3252	7.3095;
	22	23	0.000616	0.003222	0	100	0	0	1	0	1	0	0	0.8940	0.2536	-0.8940	-0.2536;
	22	24	0.000687	0.003067	0	100	0	0	1	0	1	0	0	1.5217	0.4312	-1.5217	-0.4312;
	22	27	0.011379	0.073494	0.01402	221.1	0	0	1	0	1	0	0	0.3794	-1.9296	-0.3793	0.4530;
	22	158	0.012701	0.086769	0.01476	221.1	0	0	1	0	1	0	0	-2.7952	1.2447	2.7966	-2.7873;
	25	26	0.00061	0.003071	0	100	0	0	1	0	1	0	0	0.8045	0.2324	-0.8045	-0.2324;
	25	64	0.007643	0.053244	0.0087	221.1	0	0	1	0	1	0	0	-20.9316	16.8813	20.9878	-17.3560;
	25	199	0.009909	0.064003	0.01221	221.1	0	0	1	0	1	0	0	20.1271	-17.1137	-20.0602	16.3102;
	27	28	0.000587	0.003964	0	100	0	0	1	0	1	0	0	1.4773	0.4249	-1.4773	-0.4248;
	27	93	0.025172	0.175362	0.02867	221.1	0	0	1	0	1	0	0	0.9389	-1.5595	-0.9387	-1.4628;
	27	158	0.020429	0.131945	0.02517	221.1	0	0	1	0	1	0	0	-2.0370	0.6816	2.0386	-3.3208;
	29	30	0.000694	0.003131	0	100	0	0	1	0	1	0	0	36.7957	10.5319	-36.7849	-10.4833;
	29	124	0.005561	0.038742	0.00633	221.1	0	0	1	0	1	0	0	-23.8010	-6.4771	23.8366	6.1253;
	29	140	0.007895	0.055004	0.00899	221.1	0	0	1	0	1	0	0	-12.9947	-4.0548	13.0099	3.3095;
	31	32	0.000667	0.003884	0	100	0	0	1	0	1	0	0	0.3612	0.1062	-0.3612	-0.1062;
	31	33	0.000528	0.003639	0	100	0	0	1	0	1	0	0	4.5610	1.3040	-4.5609	-1.3031;
	31	177	0.008406	0.05856	0.00957	221.1	0	0	1	0	1	0	0	-8.6513	-8.8877	8.6642	8.0593;
	31	192	0.008088	0.05525	0.0094	221.1	0	0	1	0	1	0	0	3.7291	7.4775	-3.7226	-8.3251;
	34	35	0.000575	0.003674	0	100	0	0	1	0	1	0	0	13.1638	3.7602	-13.1628	-3.7536;
	34	54	0.006268	0.042819	0.00729	221.1	0	0	1	0	1	0	0	-21.7258	-7.6504	21.7577	7.1117;
	34	137	0.006911	0.044639	0.00852	221.1	0	0	1	0	1	0	0	8.5620	3.8902	-8.5558	-4.7284;
	36	37	0.000552	0.003328	0	100	0	0	1	0	1	0	0	2.5283	0.7226	-2.5283	-0.7224;
	36	38	0.00067	0.003511	0	100	0	0	1	0	1	0	0	21.1150	6.0372	-21.1116	-6.0198;
	36	58	0.010889	0.07439	0.01266	221.1	0	0	1	0	1	0	0	1.7558	-11.2958	-1.7426	10.1487;
	36	83	0.009615	0.066986	0.01095	221.1	0	0	1	0	1	0	0	-25.3991	4.5360	25.4656	-5.1331;
	39	40	0.000505	0.003103	0	100	0	0	1	0	1	0	0	1.2935	0.3678	-1.2935	-0.3677;
	39	85	0.008702	0.060625	0.00991	221.1	0	0	1	0	1	0	0	-8.0973	6.7296	8.1076	-7.6470;
	39	159	0.007332	0.05108	0.00835	221.1	0	0	1	0	1	0	0	2.1056	-8.4353	-2.1006	7.6310;
	41	100	0.004595	0.029676	0.00566	221.1	0	0	1	0	1	0	0	-10.4777	-27.5435	10.5153	27.1911;
	41	163	0.003165	0.021623	0.00368	221.1	0	0	1	0	1	0	0	-0.9595	13.2174	0.9650	-13.5626;
	41	180	0.009408	0.060766	0.01159	221.1	0	0	1	0	1	0	0	-12.1401	7.6046	12.1594	-8.6834;
	42	44	0.012256	0.085383	0.01396	221.1	0	0	1	0	1	0	0	-10.4493	7.6210	10.4710	-8.8690;
	42	181	0.008008	0.05579	0.00912	221.1	0	0	1	0	1	0	0	3.7158	-9.5421	-3.7081	8.6717;
	43	84	0.007509	0.051295	0.00873	221.1	0	0	1	0	1	0	0	4.1351	-3.5273	-4.1329	2.7155;
	43	132	0.011052	0.075503	0.01285	221.1	0	0	1	0	1	0	0	-5.4361	3.1601	5.4413	-4.3370;
	44	200	0.014813	0.101195	0.01722	221.1	0	0	1	0	1	0	0	-13.1023	8.1208	13.1398	-9.5686;
	45	46	0.000936	0.049195	0	160	0	0	1	0	1	0	0	18.6169	-3.1257	-18.6135	3.3043;
	45	55	0.002593	0.018527	0.03378	402.36	0	0	1	0	1	0	0	4.2167	13.2293	-4.2103	-16.4901;
	45	102	0.0029	0.020715	0.03777	402.36	0	0	1	0	1	0	0	-14.1885	19.1857	14.2075	-22.7422;
	45	187	0.003474	0.024821	0.04525	402.36	0	0	1	0	1	0	0	-8.6451	-29.2893	8.6737	25.0201;
	46	61	0.006971	0.048561	0.00794	221.1	0	0	1	0	1	0	0	3.2162	6.6150	-3.2120	-7.3644;
	46	122	0.010129	0.065419	0.01248	221.1	0	0	1	0	1	0	0	10.9073	-11.2012	-10.8835	10.1189;
	47	54	0.006678	0.045623	0.00776	221.1	0	0	1	0	1	0	0	7.3730	2.0616	-7.3692	-2.8450;
	47	66	0.007339	0.047401	0.00904	221.1	0	0	1	0	1	0	0	-8.3495	-2.3405	8.3546	1.4275;
	48	49	0.027149	0.532021	0	28.9	0	0	1	0	1	0	0	-1.3594	-0.6352	1.3600	0.6473;
	48	50	0.021719	0.404167	0	28.7	0	0	1	0	1	0	0	-1.3595	-0.6378	1.3600	0.6470;
	48	51	0.027149	0.612711	0	24.3	0	0	1	0	1	0	0	-1.3594	-0.6323	1.3600	0.6463;
	48	52	0.021719	0.379817	0	24.3	0	0	1	0	1	0	0	-1.3595	-0.6372	1.3600	0.6459;
	48	53	0.02121	0.576549	0	35.3	0	0	1	0	1	0	0	-2.7182	-0.9845	2.7200	1.0334;
	48	74	0.007959	0.054369	0.00925	221.1	0	0	1	0	1	0	0	15.3016	2.6177	-15.2819	-3.3932;
	54	66	0.007051	0.045544	0.00869	221.1	0	0	1	0	1	0	0	-16.0751	-4.7485	16.0938	3.9612;
	55	56	0.005152	0.124653	0	160	0	0	1	0	1	0	0	3.0237	-0.0038	-3.0232	0.0154;
	55	81	0.005467	0.039054	0.0712	402.36	0	0	1	0	1	0	0	42.0824	-30.6177	-41.9419	24.6130;
	55	102	0.001246	0.008902	0.01623	402.36	0	0	1	0	1	0	0	-41.6648	17.1471	41.6911	-18.5414;
	55	112	0.004166	0.029763	0.05426	402.36	0	0	1	0	1	0	0	-0.0779	14.1372	0.0899	-19.3191;
	55	128	0.003415	0.024395	0.04448	402.36	0	0	1	0	1	0	0	0.8470	15.8273	-0.8357	-20.0669;
	56	103	0.004282	0.02983	0.00488	221.1	0	0	1	0	1	0	0	2.0955	-0.2775	-2.0953	-0.1972;
	57	159	0.00752	0.051369	0.00874	221.1	0	0	1	0	1	0	0	4.9433	5.3855	-4.9390	-6.2409;
	58	95	0.009836	0.063526	0.01212	221.1	0	0	1	0	1	0	0	4.6932	-21.5517	-4.6472	20.6397;
	58	177	0.014049	0.095972	0.01633	221.1	0	0	1	0	1	0	0	-5.9463	10.5461	5.9697	-11.9782;
	59	119	0.011209	0.072397	0.01381	221.1	0	0	1	0	1	0	0	-6.1223	5.2362	6.1308	-6.4997;
	59	139	0.009665	0.062426	0.01191	221.1	0	0	1	0	1	0	0	3.1778	-6.0767	-3.1737	4.9583;
	60	97	0.012274	0.079279	0.01512	221.1	0	0	1	0	1	0	0	23.7637	-8.7384	-23.6838	7.7888;
	60	134	0.009007	0.062749	0.01026	221.1	0	0	1	0	1	0	0	-26.1293	8.0660	26.1998	-8.5628;
	61	103	0.006539	0.045556	0.00745	221.1	0	0	1	0	1	0	0	-11.3417	3.2143	11.3511	-3.8757;
	62	159	0.008634	0.058979	0.01003	221.1	0	0	1	0	1	0	0	-6.1549	0.6542	6.1582	-1.6437;
	62	160	0.007628	0.053144	0.00869	221.1	0	0	1	0	1	0	0	-7.4200	-4.5219	7.4255	3.6801;
	63	66	0.011949	0.083244	0.01361	221.1	0	0	1	0	1	0	0	-15.3673	3.0243	15.3958	-4.2545;
	63	184	0.017963	0.116023	0.02214	221.1	0	0	1	0	1	0	0	10.3076	-4.4636	-10.2876	2.2623;
	64	65	0.00128	0.10157	0	195.5	0	0	1	0	1	0	0	-33.9735	18.0710	33.9927	-16.5491;
	66	67	0.020951	0.144786	0	30	0	0	1	0	1	0	0	-1.4095	-0.5337	1.4100	0.5368;
	66	68	0.00689	0.264997	0	73	0	0	1	0	1	0	0	-8.3753	0.9210	8.3800	-0.7415;
	66	69	0.00441	0.09499	0	70.5	0	0	1	0	1	0	0	-8.3770	0.7464	8.3800	-0.6823;
	66	70	0.00689	0.199449	0	70.5	0	0	1	0	1	0	0	-8.3753	0.8545	8.3800	-0.7197;
	66	71	0.003528	0.081544	0	68	0	0	1	0	1	0	0	-8.3776	0.7319	8.3800	-0.6769;
	66	72	0.003528	0.074599	0	68	0	0	1	0	1	0	0	-8.3776	0.7247	8.3800	-0.6743;
	66	73	0.00689	0.146423	0	65	0	0	1	0	1	0	0	-8.3753	0.7994	8.3800	-0.7005;
	66	158	0.004993	0.032251	0.00615	221.1	0	0	1	0	1	0	0	11.8237	-5.3784	-11.8158	4.7839;
	74	190	0.008894	0.06076	0.01034	221.1	0	0	1	0	1	0	0	4.1024	0.2050	-4.1009	-1.2074;
	75	76	0.038464	0.784328	0	24.3	0	0	1	0	1	0	0	-1.1992	-0.8027	1.2000	0.8197;
	75	77	0.08013	2.192105	0	7.4	0	0	1	0	1	0	0	-0.7194	-0.4633	0.7200	0.4801;
	75	78	0.008544	0.181406	0	65	0	0	1	0	1	0	0	0.0000	0.0000	0.0000	0.0000;
	75	79	0.01068	0.277774	0	62.1	0	0	1	0	1	0	0	0.0000	-0.0000	0.0000	-0.0000;
	75	108	0.010988	0.070969	0.01354	221.1	0	0	1	0	1	0	0	9.0028	-0.3721	-8.9935	-0.8635;
	75	157	0.013487	0.087112	0.01662	221.1	0	0	1	0	1	0	0	-9.3253	0.9969	9.3380	-2.5068;
	80	100	0.021463	0.149525	0.02444	221.1	0	0	1	0	1	0	0	2.4186	-8.6435	-2.4061	6.1658;
	80	143	0.020594	0.14347	0.02345	221.1	0	0	1	0	1	0	0	-3.3287	8.3852	3.3492	-10.6478;
	81	82	0.00097	0.042371	0	250	0	0	1	0	1	0	0	17.5303	4.3070	-17.5271	-4.1679;
	81	178	0.006598	0.047137	0.08594	402.36	0	0	1	0	1	0	0	24.4116	-28.9200	-24.3316	20.8721;
	82	195	0.003845	0.026265	0.00447	221.1	0	0	1	0	1	0	0	12.9981	2.8748	-12.9912	-3.2688;
	83	146	0.005382	0.036767	0.00626	221.1	0	0	1	0	1	0	0	-13.2318	2.9257	13.2422	-3.4607;
	83	186	0.00792	0.055174	0.00902	221.1	0	0	1	0	1	0	0	-14.4575	1.5771	14.4750	-2.3286;
	84	113	0.006652	0.04544	0.00773	221.1	0	0	1	0	1	0	0	1.7985	-3.3816	-1.7976	2.6539;
	85	120	0.007786	0.050291	0.00959	221.1	0	0	1	0	1	0	0	-11.1700	6.7720	11.1839	-7.6329;
	86	101	0.00512	0.033072	0.00631	221.1	0	0	1	0	1	0	0	-2.3559	-2.0169	2.3564	1.4262;
	86	142	0.003387	0.023141	0.00394	221.1	0	0	1	0	1	0	0	-4.7097	1.9492	4.7107	-2.3129;
	86	193	0.006606	0.042664	0.00814	221.1	0	0	1	0	1	0	0	-7.5258	-2.5153	7.5301	1.7766;
	87	88	0.000832	0.034189	0	350	0	0	1	0	1	0	0	40.1379	-2.2995	-40.1247	2.8397;
	87	149	0.001621	0.011579	0.02111	402.36	0	0	1	0	1	0	0	-40.1379	2.2995	40.1636	-4.2760;
	88	150	0.00557	0.035973	0.00686	221.1	0	0	1	0	1	0	0	-15.7052	-2.2589	15.7188	1.6432;
	88	176	0.003859	0.024922	0.00475	221.1	0	0	1	0	1	0	0	17.9281	3.3367	-17.9155	-3.7411;
	88	194	0.004258	0.029088	0.00495	221.1	0	0	1	0	1	0	0	7.4967	-12.5818	-7.4881	12.1324;
	89	90	0.0601	2.279922	0	8.6	0	0	1	0	1	0	0	-0.9593	-0.5027	0.9600	0.5294;
	89	91	0.024614	0.503424	0	32	0	0	1	0	1	0	0	-1.4993	-0.8161	1.5000	0.8308;
	89	92	0.019539	0.36204	0	35.3	0	0	1	0	1	0	0	-0.0000	0.0000	0.0000	0.0000;
	89	95	0.008734	0.056409	0.01076	221.1	0	0	1	0	1	0	0	-2.5140	-10.1097	2.5225	9.0834;
	89	188	0.00805	0.051996	0.00992	221.1	0	0	1	0	1	0	0	-39.5382	-1.2555	39.6642	1.0736;
	93	94	0.01068	0.280602	0	62.1	0	0	1	0	1	0	0	-5.3970	-0.1353	5.4000	0.2128;
	93	191	0.022088	0.142662	0.02722	221.1	0	0	1	0	1	0	0	7.2113	-0.0673	-7.2000	-2.7207;
	96	122	0.01062	0.073986	0.01209	221.1	0	0	1	0	1	0	0	-17.2952	8.1896	17.3350	-9.1222;
	96	143	0.015858	0.102423	0.01954	221.1	0	0	1	0	1	0	0	19.8867	-7.4812	-19.8176	5.9557;
	96	188	0.010903	0.070421	0.01343	221.1	0	0	1	0	1	0	0	-4.6878	-1.3032	4.6902	-0.0324;
	97	200	0.01318	0.085125	0.01624	221.1	0	0	1	0	1	0	0	19.1207	-9.0898	-19.0618	7.8820;
	98	99	0.000643	0.030516	0	250	0	0	1	0	1	0	0	35.5551	6.5073	-35.5463	-6.0887;
	98	123	0.0047	0.033574	0.06121	402.36	0	0	1	0	1	0	0	-35.5551	-6.5073	35.6181	1.1094;
	99	142	0.007605	0.052982	0.00866	221.1	0	0	1	0	1	0	0	27.9701	3.9286	-27.9059	-4.2983;
	100	174	0.010698	0.074531	0.01218	221.1	0	0	1	0	1	0	0	-9.4063	14.3192	9.4378	-15.3781;
	100	179	0.007093	0.049413	0.00808	221.1	0	0	1	0	1	0	0	-17.9853	27.9302	18.0608	-28.2506;
	100	184	0.012745	0.08879	0.01451	221.1	0	0	1	0	1	0	0	-3.7107	2.6249	3.7137	-4.1379;
	101	110	0.00196	0.012657	0.00241	221.1	0	0	1	0	1	0	0	-2.6630	-0.0715	2.6631	-0.1545;
	101	117	0.005245	0.035833	0.0061	221.1	0	0	1	0	1	0	0	-11.0995	-5.0260	11.1077	4.5056;
	101	141	0.003144	0.020305	0.00387	221.1	0	0	1	0	1	0	0	-2.1518	-0.0720	2.1519	-0.2914;
	102	103	0.001709	0.054578	0	250	0	0	1	0	1	0	0	15.1875	-1.9630	-15.1834	2.0944;
	102	104	0.0021	0.087749	0	130	0	0	1	0	1	0	0	-27.9284	7.6252	27.9465	-6.8698;
	102	105	0.00097	0.059419	0	260	0	0	1	0	1	0	0	-63.3730	22.7869	63.4182	-20.0192;
	102	128	0.0027	0.019292	0.03517	402.36	0	0	1	0	1	0	0	20.2153	12.8344	-20.1981	-16.1242;
	103	106	0.007749	0.053987	0.00883	221.1	0	0	1	0	1	0	0	5.9275	1.9785	-5.9243	-2.8155;
	106	130	0.006991	0.047761	0.00813	221.1	0	0	1	0	1	0	0	4.4654	2.3977	-4.4634	-3.1728;
	107	113	0.006748	0.046101	0.00784	221.1	0	0	1	0	1	0	0	-21.6240	-4.5876	21.6587	4.0824;
	107	129	0.005168	0.035307	0.00601	221.1	0	0	1	0	1	0	0	-18.5618	-3.7599	18.5814	3.3250;
	107	192	0.003939	0.025441	0.00485	221.1	0	0	1	0	1	0	0	2.9625	-2.2614	-2.9620	1.8071;
	108	198	0.024792	0.160126	0.03055	221.1	0	0	1	0	1	0	0	3.1293	-0.8049	-3.1266	-2.0923;
	109	186	0.008774	0.059942	0.0102	221.1	0	0	1	0	1	0	0	-20.2315	6.9540	20.2734	-7.6576;
	110	193	0.003444	0.022243	0.00424	221.1	0	0	1	0	1	0	0	-9.4237	-1.7691	9.4271	1.3911;
	111	163	0.005281	0.034111	0.00651	221.1	0	0	1	0	1	0	0	-5.7210	-1.1996	5.7227	0.5360;
	111	175	0.00795	0.055386	0.00905	221.1	0	0	1	0	1	0	0	0.2971	-0.3439	-0.2971	-0.5932;
	112	113	0.002077	0.058615	0	350	0	0	1	0	1	0	0	50.6405	12.2308	-50.5821	-10.5838;
	112	114	0.06	0.434013	0	20	0	0	1	0	1	0	0	-0.6969	-0.0544	0.6972	0.0566;
	112	115	0.00128	0.062771	0	200	0	0	1	0	1	0	0	-52.5086	14.4601	52.5479	-12.5323;
	112	128	0.001295	0.009255	0.01687	402.36	0	0	1	0	1	0	0	2.4750	-7.3175	-2.4743	5.6918;
	113	192	0.005418	0.034995	0.00668	221.1	0	0	1	0	1	0	0	30.7210	3.8475	-30.6662	-4.1264;
	116	117	0.000517	0.034943	0	300	0	0	1	0	1	0	0	59.8329	6.0065	-59.8133	-4.6772;
	116	133	0.00389	0.027793	0.05067	402.36	0	0	1	0	1	0	0	-59.8329	-6.0065	59.9800	2.2231;
	117	132	0.011912	0.082984	0.01357	221.1	0	0	1	0	1	0	0	22.2870	-0.4006	-22.2245	-0.4440;
	117	162	0.01617	0.104442	0.01993	221.1	0	0	1	0	1	0	0	5.2030	-5.4725	-5.1948	3.6315;
	118	131	0.00718	0.046377	0.00885	221.1	0	0	1	0	1	0	0	19.0976	5.0063	-19.0678	-5.6513;
	118	134	0.011598	0.0808	0.01321	221.1	0	0	1	0	1	0	0	-21.7669	-3.5166	21.8258	2.6650;
	118	198	0.009487	0.064809	0.01103	221.1	0	0	1	0	1	0	0	0.2166	-2.1870	-0.2163	1.1398;
	121	122	0.000786	0.063023	0	200	0	0	1	0	1	0	0	17.3887	4.3147	-17.3862	-4.1128;
	121	178	0.008903	0.063604	0.11596	402.36	0	0	1	0	1	0	0	37.6797	-19.5424	-37.5367	8.8819;
	121	187	0.001063	0.007593	0.01384	402.36	0	0	1	0	1	0	0	-96.6035	53.1741	96.7333	-53.6289;
	123	124	0.000329	0.017481	0	400	0	0	1	0	1	0	0	117.9018	18.5904	-117.8529	-15.9918;
	123	125	0.00448	0.104562	0	170	0	0	1	0	1	0	0	-38.9448	-9.6134	39.0200	11.3690;
	123	126	0.00148	0.066043	0	170	0	0	1	0	1	0	0	-38.9949	-10.2054	39.0200	11.3250;
	123	127	0.001	0.031691	0	170	0	0	1	0	1	0	0	-39.0030	-10.3635	39.0200	10.9021;
	123	133	0.001459	0.010423	0.019	402.36	0	0	1	0	1	0	0	-32.8083	8.0001	32.8259	-9.6945;
	123	156	0.001117	0.007981	0.01455	402.36	0	0	1	0	1	0	0	-3.7689	2.4824	3.7692	-3.8745;
	124	193	0.006577	0.04582	0.00749	221.1	0	0	1	0	1	0	0	32.7384	4.4946	-32.6627	-4.6766;
	128	129	0.000753	0.044453	0	250	0	0	1	0	1	0	0	73.3288	21.5990	-73.2833	-18.9126;
	128	133	0.009554	0.068257	0.12444	402.36	0	0	1	0	1	0	0	-49.8206	8.9004	50.0879	-18.9654;
	130	144	0.022678	0.157988	0.02583	221.1	0	0	1	0	1	0	0	1.3473	2.2876	-1.3439	-4.7508;
	133	134	0.0002	0.013328	0	400	0	0	1	0	1	0	0	102.4729	-10.5242	-102.4507	12.0013;
	133	135	0.00043	0.033512	0	580	0	0	1	0	1	0	0	-133.8374	21.7650	133.9200	-15.3298;
	133	136	0.00043	0.027478	0	580	0	0	1	0	1	0	0	-133.8375	21.1589	133.9200	-15.8899;
	133	156	0.001958	0.013985	0.0255	402.36	0	0	1	0	1	0	0	22.3084	-5.9630	-22.2977	3.5968;
	134	140	0.010445	0.071357	0.01214	221.1	0	0	1	0	1	0	0	18.1588	3.8665	-18.1208	-4.7662;
	134	186	0.014463	0.093412	0.01782	221.1	0	0	1	0	1	0	0	36.2663	-9.9700	-36.0556	9.6127;
	138	139	0.026477	0.184455	0.03015	221.1	0	0	1	0	1	0	0	1.0908	3.2825	-1.0844	-6.1722;
	138	195	0.008728	0.05637	0.01075	221.1	0	0	1	0	1	0	0	-2.3363	-3.6400	2.3376	2.5906;
	141	148	0.01019	0.065817	0.01256	221.1	0	0	1	0	1	0	0	12.0574	2.3221	-12.0407	-3.3934;
	141	193	0.002896	0.018702	0.00357	221.1	0	0	1	0	1	0	0	-10.6737	-2.1268	10.6774	1.8138;
	144	162	0.006962	0.048504	0.00793	221.1	0	0	1	0	1	0	0	-4.2899	3.1447	4.2922	-3.8867;
	145	176	0.008799	0.060111	0.01023	221.1	0	0	1	0	1	0	0	-6.1975	-1.4212	6.2009	0.4011;
	145	185	0.010839	0.075509	0.01234	221.1	0	0	1	0	1	0	0	-4.6113	-1.6599	4.6136	0.4178;
	146	147	0.0025	0.10181	0	130.6	0	0	1	0	1	0	0	-35.9310	5.9032	35.9653	-4.5070;
	146	177	0.011064	0.07708	0.0126	221.1	0	0	1	0	1	0	0	22.6888	-2.4425	-22.6296	1.6385;
	149	150	0.000412	0.020251	0	400	0	0	1	0	1	0	0	63.6788	-10.0277	-63.6620	10.8499;
	149	151	0.02267	0.625521	0	20	0	0	1	0	1	0	0	-1.6193	-0.6106	1.6200	0.6289;
	149	152	0.00249	0.141687	0	100	0	0	1	0	1	0	0	-23.1560	6.2037	23.1700	-5.4082;
	149	153	0.00549	0.184603	0	100	0	0	1	0	1	0	0	-23.1390	6.4645	23.1700	-5.4235;
	149	154	0.00249	0.10294	0	100	0	0	1	0	1	0	0	-23.1561	5.9680	23.1700	-5.3929;
	149	155	0.00249	0.099835	0	100	0	0	1	0	1	0	0	-23.1561	5.9490	23.1700	-5.3915;
	150	185	0.013458	0.091934	0.01564	221.1	0	0	1	0	1	0	0	11.2799	0.8239	-11.2628	-2.3096;
	150	194	0.003138	0.021435	0.00365	221.1	0	0	1	0	1	0	0	36.6633	-13.3169	-36.6170	13.2578;
	156	157	0.000592	0.045654	0	300	0	0	1	0	1	0	0	18.5286	0.2777	-18.5264	-0.1141;
	160	161	0.00139	0.080288	0	180.2	0	0	1	0	1	0	0	0.0000	0.0000	0.0000	0.0000;
	160	181	0.004296	0.029345	0.00499	221.1	0	0	1	0	1	0	0	-7.4255	-3.6801	7.4283	3.1923;
	163	164	0.008207	0.11301	0	58.1	0	0	1	0	1	0	0	-0.0000	-0.0000	0.0000	0.0000;
	163	165	0.0074	0.301657	0	65	0	0	1	0	1	0	0	0.0000	0.0000	0.0000	0.0000;
	163	166	0.016368	0.382075	0	42	0	0	1	0	1	0	0	0.0000	-0.0000	0.0000	0.0000;
	163	167	0.010476	0.196499	0	42	0	0	1	0	1	0	0	-2.8191	-1.0081	2.8200	1.0251;
	163	168	0.018	0.490983	0	40	0	0	1	0	1	0	0	-0.0000	-0.0000	0.0000	0.0000;
	163	169	0.016368	0.396417	0	40	0	0	1	0	1	0	0	0.0000	0.0000	0.0000	0.0000;
	163	170	0.016368	0.374902	0	35.6	0	0	1	0	1	0	0	-2.8186	-0.9635	2.8200	0.9956;
	163	179	0.00579	0.039557	0.00673	221.1	0	0	1	0	1	0	0	-29.2148	6.9731	29.2655	-7.3241;
	171	190	0.009866	0.0674	0.01147	221.1	0	0	1	0	1	0	0	5.9083	0.5414	-5.9047	-1.6411;
	171	195	0.011644	0.081116	0.01326	221.1	0	0	1	0	1	0	0	-10.6399	-1.8882	10.6535	0.6782;
	172	180	0.015296	0.106558	0.01742	221.1	0	0	1	0	1	0	0	1.7784	-3.3391	-1.7770	1.5496;
	172	199	0.024005	0.155042	0.02958	221.1	0	0	1	0	1	0	0	-5.0868	2.3982	5.0964	-5.3696;
	173	174	0.015373	0.099293	0.01894	221.1	0	0	1	0	1	0	0	-9.5559	-1.1264	9.5695	-0.7521;
	173	175	0.008572	0.055363	0.01056	221.1	0	0	1	0	1	0	0	4.1997	-0.3987	-4.1982	-0.6859;
	174	188	0.017952	0.12264	0.02087	221.1	0	0	1	0	1	0	0	-20.7107	15.6444	20.8331	-16.9442;
	178	179	0.000495	0.036157	0	250	0	0	1	0	1	0	0	61.8683	-29.7540	-61.8453	31.4360;
	180	191	0.026393	0.183866	0.03006	221.1	0	0	1	0	1	0	0	-2.7497	-4.5546	2.7539	1.4539;
	180	199	0.012185	0.078698	0.01501	221.1	0	0	1	0	1	0	0	-12.3925	10.3293	12.4251	-11.6616;
	181	182	0.01099	0.297746	0	60.3	0	0	1	0	1	0	0	-5.2470	-0.6096	5.2500	0.6912;
	181	183	0.004627	0.114254	0	65	0	0	1	0	1	0	0	-7.9771	-0.0537	7.9800	0.1251;
	181	194	0.004395	0.028384	0.00542	221.1	0	0	1	0	1	0	0	-20.9176	-19.8681	20.9531	19.5422;
	187	188	0.001394	0.044762	0	400	0	0	1	0	1	0	0	65.2498	-13.9020	-65.1875	15.9030;
	187	189	0.0003	0.007815	0	740	0	0	1	0	1	0	0	-170.6568	42.5108	170.7500	-40.0830;
	195	196	0.00285	0.060038	0	87.7	0	0	1	0	1	0	0	0.0000	0.0000	-0.0000	-0.0000;
	195	197	0.00285	0.191484	0	87.7	0	0	1	0	1	0	0	0.0000	0.0000	0.0000	0.0000;
];

%% generator cost data
%	2	startup	shutdown	n	c(n-1)	...	c0
%	Using quadratic cost curves only
mpc.gencost = [
	2	0	0	3	0.002	19	236.12;
	2	0	0	3	0.002	19	236.12;
	2	0	0	3	0.002	19	236.12;
	2	0	0	3	0.002	19	236.12;
	2	0	0	3	0.002	19	236.24;
	2	0	0	3	0	0	0;
	2	0	0	3	0.002	19	236.13;
	2	0	0	3	0.002	19	236.74;
	2	0	0	3	0.002	19	236.74;
	2	0	0	3	0.002	19	236.74;
	2	0	0	3	0.002	19	236.74;
	2	0	0	3	0.002	19	236.74;
	2	0	0	3	0.002	19	236.74;
	2	0	0	3	0.002	23.157	606;
	2	0	0	3	0.002	23.146	603.6;
	2	0	0	3	0.002	23.252	627;
	2	0	0	3	0.002	23.252	627;
	2	0	0	3	0.002	23.152	604.8;
	2	0	0	3	0.002	23.164	607.5;
	2	0	0	3	0.002	23.173	609.45;
	2	0	0	3	0.002	19	236.48;
	2	0	0	3	0	0	0;
	2	0	0	3	0	0	0;
	2	0	0	3	0	0	0;
	2	0	0	3	0	0	0;
	2	0	0	3	0.002	19	610.14;
	2	0	0	3	0.002	19	610.14;
	2	0	0	3	0.002	19	610.14;
	2	0	0	3	0.002	19	1261.33;
	2	0	0	3	0.002	19	1261.33;
	2	0	0	3	0	0	0;
	2	0	0	3	0.002	19	236.14;
	2	0	0	3	0.002	19	253.01;
	2	0	0	3	0.002	19	253.01;
	2	0	0	3	0.002	19	253.01;
	2	0	0	3	0.002	19	253.01;
	2	0	0	3	0.002	24.07	807.9;
	2	0	0	3	0.002	23.211	618;
	2	0	0	3	0.002	23.306	639;
	2	0	0	3	0.002	23.194	614.1;
	2	0	0	3	0.002	23.194	614.1;
	2	0	0	3	0.002	23.194	614.1;
	2	0	0	3	0.002	23.194	614.1;
	2	0	0	3	0.002	23.194	614.1;
	2	0	0	3	0.002	19	236.47;
	2	0	0	3	0.002	19	236.71;
	2	0	0	3	0	6.71	1272.13;
	2	0	0	3	0.002	23.588	701.25;
	2	0	0	3	0.002	23.588	701.25;
];

%% generator fuel type
mpc.genfuel = {
	"coal";
	"coal";
	"coal";
	"coal";
	"coal";
	"wind";
	"coal";
	"coal";
	"coal";
	"coal";
	"coal";
	"coal";
	"coal";
	"ng";
	"ng";
	"ng";
	"ng";
	"ng";
	"ng";
	"ng";
	"coal";
	"wind";
	"wind";
	"wind";
	"wind";
	"coal";
	"coal";
	"coal";
	"coal";
	"coal";
	"wind";
	"coal";
	"coal";
	"coal";
	"coal";
	"coal";
	"ng";
	"ng";
	"ng";
	"ng";
	"ng";
	"ng";
	"ng";
	"ng";
	"coal";
	"coal";
	"nuclear";
	"ng";
	"ng";

};

%% summary data
mpc.summary_stats = [
%	Nbus	Ngen	NgenON	Nline	NlineON	Nload	GenPCap	GenTotalP	GenTotalQ	GenPCapON	LoadTotP	LoadTotalQ	LoadShedP	LoadShedQ
	200	49	38	245	245	108	3379.59	953.017697	-113.443129	2997.49	947.734715	270.091222	0	0
];

%% solve time
mpc.solve_time = 0;
